Version 4
SHEET 1 880 680
WIRE 112 112 48 112
WIRE 240 112 192 112
WIRE 48 128 48 112
WIRE 240 144 240 112
WIRE 48 240 48 208
WIRE 128 240 48 240
WIRE 240 240 240 208
WIRE 240 240 128 240
WIRE 128 256 128 240
FLAG 128 256 0
SYMBOL res 208 96 R90
WINDOW 0 0 56 VBottom 2
WINDOW 3 32 56 VTop 2
SYMATTR InstName R1
SYMATTR Value 1K
SYMBOL cap 224 144 R0
SYMATTR InstName C1
SYMATTR Value 500µF
SYMBOL voltage 48 112 R0
WINDOW 123 0 0 Left 0
WINDOW 39 0 0 Left 0
SYMATTR InstName V1
SYMATTR Value PWL file=C:\Users\Anirban\Desktop\myfile.txt
TEXT 48 296 Left 2 !.tran 20s
